powerflow/Codes/PF_Formulation/resultados_csv/5busfrank_csca__16_qv__bus.csv
ID_Barra,Tipo_Barra,Vm_pu,Va_graus,Pg_pu,Qg_pu,Pd_pu,Qd_pu,Slack_QLIM,Slack_VLIM
1,3,1.1000000109998596,0.0,0.6514313442363666,0.7722517967266989,0.0,0.0,0.0,0.0
2,2,1.066783533083026,-1.2763111482029497,0.12990000000000002,0.7040000099971712,0.0,0.0,0.0,0.0
3,1,0.8999999900001541,3.4245354065971747,0.0,0.0,0.5039,1.003,0.0,-0.469837072037704
4,1,0.8999999900012539,2.1785253442779986,0.0,0.0,0.0239,0.503,0.0,-0.5292312104295863
5,1,0.8999999900083686,1.5626040429221373,0.0,0.0,0.0239,0.503,0.0,-0.5281304661004094
